#p test gfinput gen units=au int=uncontractaobasis
iop(3/33=2)
pop=full 6d 10f
output=faf

test

0  1
h
h  1  1.4

      1 0
 D   1 1.00       0.000000000000
      0.1309756377D+01  0.1000000000D+01
 S   1 1.00       0.000000000000
      0.2331359749D+00  0.1000000000D+01
 ****
      2 0
 S   1 1.00       0.000000000000
      0.1309756377D+01  0.1000000000D+01
 S   1 1.00       0.000000000000
      0.2331359749D+00  0.1000000000D+01
 ****

002.faf

